/*--------------------------------*- C++ -*----------------------------------*\
| =========                 |                                                 |
| \\      /  F ield         | OpenFOAM: The Open Source CFD Toolbox           |
|  \\    /   O peration     | Version:  2.1.0                                 |
|   \\  /    A nd           | Web:      www.OpenFOAM.org                      |
|    \\/     M anipulation  |                                                 |
\*---------------------------------------------------------------------------*/
FoamFile
{
    version     2.0;
    format      ascii;
    class       volScalarField;
    location    "10";
    object      pa;
}
// * * * * * * * * * * * * * * * * * * * * * * * * * * * * * * * * * * * * * //

dimensions      [1 -1 -2 0 0 0 0];

internalField   uniform 0;

boundaryField
{
    Inlet
    {
        type            zeroGradient;
    }

    Outlet
    {
        type            zeroGradient;
    }

    Back
    {
        type            zeroGradient;
    }

    Symmetry
    {
        type            symmetryPlane;
    }

    Cylinder
    {
        type            zeroGradient;
    }

    Atmosphere
    {
        // type            inletOutlet;
        // inletValue      uniform 0;
        // value           uniform 0;
        type            zeroGradient;
    }

    Bottom
    {
        type            zeroGradient;
    }
}


// ************************************************************************* //
