/*--------------------------------*- C++ -*----------------------------------*\
| =========                 |                                                 |
| \\      /  F ield         | OpenFOAM: The Open Source CFD Toolbox           |
|  \\    /   O peration     | Version:  1.7.1                                 |
|   \\  /    A nd           | Web:      www.OpenFOAM.com                      |
|    \\/     M anipulation  |                                                 |
\*---------------------------------------------------------------------------*/
FoamFile
{
    version     2.0;
    format      ascii;
    class       dictionary;
    location    "system";
    object      controlDict;
}
// * * * * * * * * * * * * * * * * * * * * * * * * * * * * * * * * * * * * * //

application     sedInterFoam;

startFrom       latestTime;

startTime       0;

stopAt          endTime;

endTime         1800;

deltaT         0.001;// 0.0001;

writeControl    adjustableRunTime;

writeInterval   0.1;

purgeWrite      0;

writeFormat     binary ;//binary;

writePrecision  6;

writeCompression off ;// uncompressed;

timeFormat      general;

timePrecision   6;

runTimeModifiable on;

adjustTimeStep  yes;

maxCo           0.475;//0.5;// 0.1;

maxAlphaCo      0.475;//0.5; //0.1

maxDeltaT       5e-3;

libs (
  "libsimpleFunctionObjects.so"
  "libsimpleSwakFunctionObjects.so"
  "libswakFunctionObjects.so"
  "libgroovyBC.so"
  "libOpenFOAM.so"
  "libforces.so"
);

functions
{
  forces
  {
    type forces;
    functionObjectLibs ("libforces.so");
    patches (Cylinder);
    rho rhoInf;
    rhoInf 1000; // Reference density, fluid
    CofR (0.0 0.0 0.0010); // Origin for moment calculations
    executeInterval     1;
    writeControl timeStep;
    // writeControl     writeTime;
    writeInterval 1;
    pName           p;
    Uname           U.fluid;
    // pName           pa;
    // Uname           Ua;
    log             true;
  }
};


// ************************************************************************* //
