/*--------------------------------*- C++ -*----------------------------------*\
| OpenFOAM: topoSetDict                                                      |
\*---------------------------------------------------------------------------*/
FoamFile
{
    version     2.0;
    format      ascii;
    class       dictionary;
    object      topoSetDict;
}

actions
(
    {
        name    refineCells;
        type    cellSet;
        action  new;
        source  boxToCell;
        sourceInfo
        {
            box (3.0 0.0 0.0) (19.0 4.0 18.0);
        }
    }
);
